

 <DUALSPHYSICS4> Copyright (c) 2019 by
 Dr Jose M. Dominguez, Dr Alejandro Crespo,
 Prof. Moncho Gomez Gesteira,  Prof. Benedict Rogers,
 Dr Georgios Fourtakas, Prof. Peter Stansby, Dr Ricardo Canelas,
 Dr Renato Vacondio, Dr Corrado Altomare, Dr Angelo Tafuni,
 Orlando Garcia-Feal, Dr Jose Gonzalez Cao

 EPHYSLAB Environmental Physics Laboratory, Universidade de Vigo
 School of Mechanical, Aerospace and Civil Engineering, University of Manchester

 DualSPHysics is free software: you can redistribute it and/or
 modify it under the terms of the GNU Lesser General Public License
 as published by the Free Software Foundation, either version 2.1 of
 the License, or (at your option) any later version.

 DualSPHysics is distributed in the hope that it will be useful,
 but WITHOUT ANY WARRANTY; without even the implied warranty of
 MERCHANTABILITY or FITNESS FOR A PARTICULAR PURPOSE.  See the
 GNU Lesser General Public License for more details.

 You should have received a copy of the GNU Lesser General Public License
 along with DualSPHysics. If not, see <http://www.gnu.org/licenses/>.


DualSPHysics4 [Symmetry] v4.4.010 (21-06-2019)
===============================================
Threads by host for parallel execution: 8
[Initialising JSphCpuSingle  03-02-2020 10:53:39]
ProgramFile=".../DSPHOnlyVisco/build-source-Desktop-Default/DualSPHysics4.4CPU"
ExecutionDir=".../Qt/DSPHOnlyVisco/build-source-Desktop-Default"
XmlFile=".../build-source-Desktop-Default/Gen/gen.xml"
OutputDir=".../DSPHOnlyVisco/build-source-Desktop-Default/DSPH"
OutputDataDir=".../DSPHOnlyVisco/build-source-Desktop-Default/DSPH"

*** WARNING: The options IncZ and DomainFixedXXXX are deprecated.

**Basic case configuration is loaded
**Special case configuration is loaded
Loading initial state of particles...
Loaded particles: 5100
MapRealPos(border)=(-0.000707107,0.499293,-0.005)-(0.500707,0.500707,0.995)
MapRealPos(final)=(-0.000707107,0.499293,-0.005)-(0.500707,0.500707,0.995)
**Initial state of particles is loaded
**2D-Simulation parameters:
CaseName="gen"
RunName="gen"
Simulate2DPosY=0.5
Symmetry=False
PosDouble="0: Uses and stores in single precision"
SvTimers=True
StepAlgorithm="Verlet"
VerletSteps=40
Kernel="Wendland"
Viscosity="Artificial"
Visco=0.010000
ViscoBoundFactor=1.000000
DeltaSph="None"
Shifting="None"
RigidAlgorithm="None"
FloatingCount=0
CaseNp=5100
CaseNbound=2380
CaseNfixed=2380
CaseNmoving=0
CaseNfloat=0
CaseNfluid=2720
PeriodicActive="Axis-Z"
PeriodicZinc=(0,0,-1)
Dx=0.01
H=0.014142
CoefficientH=1
CteB=554965.687500
Gamma=7.000000
RhopZero=1000.000000
Cs0=62.3278
CFLnumber=0.200000
DtIni=0.000226899
DtMin=1.1345e-05
DtAllParticles=False
MassFluid=0.100000
MassBound=0.100000
Awen (Wendland)=2784.999756
Bwen (Wendland)=-984716.812500
TimeMax=1
TimePart=0.01
Gravity=(0.000000,0.000000,-9.810000)
NpMinimum=2380
RhopOut=True
RhopOutMin=700.000000
RhopOutMax=1300.000000
**Requested cpu memory for 5110 particles: 0.6 MB.
CellMode="2H"
Hdiv=1
MapCells=(18,1,38)
DomCells=(18,1,38)
DomCellCode="12_8_12"
**JSphCpu: Requesting cpu memory for 5617 particles: 0.7 MB.
**CellDiv: Requested cpu memory for 5686 particles: 0.2 MB.
**CellDiv: Requested cpu memory for 1170 cells (CellMode=2H): 0.0 MB.
 
RunMode="Pos-Single - OpenMP(Threads:8)"
 
Particle summary:
  Fixed....: 2380  id:(0-2379)   MKs:1 (11)
  Moving...: 0
  Floating.: 0
  Fluid....: 2720  id:(2380-5099)   MKs:3 (1-3)

Total particles: 5100 (bound=2380 (fx=2380 mv=0 ft=0) fluid=2720)
Total MK blocks: 4 (bound=1 (fx=1 mv=0 ft=0) fluid=3)
 
Allocated memory in CPU: 919692 (0.88 MB)
Part_0000        5100 particles successfully stored

[WARNINGS]
1. The options IncZ and DomainFixedXXXX are deprecated.

[Initialising simulation (mki48i3s)  03-02-2020 10:53:39]
PART       PartTime      TotalSteps    Steps    Time/Sec   Finish time        
=========  ============  ============  =======  =========  ===================
**JSphCpu: Requesting cpu memory for 5938 particles: 0.7 MB.
**CellDiv: Requested cpu memory for 6007 particles: 0.2 MB.
Part_0001      0.010009           221      221      27.23  03-02-2020 10:54:06
Part_0002      0.020006           442      221      25.55  03-02-2020 10:54:05
Part_0003      0.030024           664      222      23.46  03-02-2020 10:54:04
Part_0004      0.040025           886      222      23.90  03-02-2020 10:54:04
Part_0005      0.050003          1108      222      24.42  03-02-2020 10:54:04
Part_0006      0.060004          1331      223      24.49  03-02-2020 10:54:04
Part_0007      0.070033          1555      224      24.59  03-02-2020 10:54:04
Part_0008      0.080041          1779      224      24.72  03-02-2020 10:54:03
Part_0009      0.090017          2003      224      24.75  03-02-2020 10:54:04
Part_0010      0.100024          2228      225      24.78  03-02-2020 10:54:04
Part_0011      0.110001          2453      225      24.69  03-02-2020 10:54:04
Part_0012      0.120005          2679      226      24.75  03-02-2020 10:54:03
Part_0013      0.130041          2906      227      26.22  03-02-2020 10:54:04
Part_0014      0.140029          3132      226      26.58  03-02-2020 10:54:04
Part_0015      0.150016          3359      227      25.10  03-02-2020 10:54:04
Part_0016      0.160004          3586      227      25.20  03-02-2020 10:54:04
Part_0017      0.170032          3814      228      25.15  03-02-2020 10:54:04
Part_0018      0.180023          4042      228      25.39  03-02-2020 10:54:04
Part_0019      0.190026          4271      229      25.57  03-02-2020 10:54:04
Part_0020      0.200025          4499      228      25.10  03-02-2020 10:54:04
Part_0021      0.210042          4728      229      25.53  03-02-2020 10:54:04
Part_0022      0.220003          4956      228      25.59  03-02-2020 10:54:04
Part_0023      0.230015          5186      230      25.40  03-02-2020 10:54:04
Part_0024      0.240004          5415      229      27.36  03-02-2020 10:54:05
Part_0025      0.250028          5645      230      27.67  03-02-2020 10:54:05
Part_0026      0.260011          5874      229      25.39  03-02-2020 10:54:04
Part_0027      0.270013          6104      230      25.68  03-02-2020 10:54:04
Part_0028      0.280029          6335      231      25.88  03-02-2020 10:54:05
Part_0029      0.290040          6566      231      25.96  03-02-2020 10:54:05
Part_0030      0.300038          6796      230      26.10  03-02-2020 10:54:04
Part_0031      0.310007          7027      231      25.68  03-02-2020 10:54:04
Part_0032      0.320028          7260      233      27.42  03-02-2020 10:54:05
Part_0033      0.330002          7493      233      38.37  03-02-2020 10:54:05
Part_0034      0.340037          7726      233      54.91  03-02-2020 10:54:06
Part_0035      0.350029          7957      231      71.28  03-02-2020 10:54:07
Part_0036      0.360003          8191      234      27.57  03-02-2020 10:54:07
Part_0037      0.370007          8423      232      32.55  03-02-2020 10:54:07
Part_0038      0.380022          8657      234      25.58  03-02-2020 10:54:07
Part_0039      0.390041          8893      236      25.69  03-02-2020 10:54:07
Part_0040      0.400019          9131      238      26.40  03-02-2020 10:54:07
Part_0041      0.410012          9367      236      35.26  03-02-2020 10:54:07
Part_0042      0.420018          9604      237      41.87  03-02-2020 10:54:07
Part_0043      0.430001          9843      239      37.73  03-02-2020 10:54:08
Part_0044      0.440021         10078      235      25.35  03-02-2020 10:54:08
Part_0045      0.450039         10318      240      25.78  03-02-2020 10:54:07
Part_0046      0.460015         10556      238      35.63  03-02-2020 10:54:08
Part_0047      0.470024         10797      241      35.71  03-02-2020 10:54:08
Part_0048      0.480032         11044      247      38.01  03-02-2020 10:54:08
Part_0049      0.490028         11285      241      26.40  03-02-2020 10:54:08
Part_0050      0.500005         11528      243      33.32  03-02-2020 10:54:08
Part_0051      0.510003         11771      243      80.37  03-02-2020 10:54:09
Part_0052      0.520024         12011      240      43.29  03-02-2020 10:54:09
Part_0053      0.530016         12257      246      26.35  03-02-2020 10:54:09
Part_0054      0.540020         12501      244      27.08  03-02-2020 10:54:09
Part_0055      0.550004         12749      248      26.87  03-02-2020 10:54:09
Part_0056      0.560009         12995      246      32.27  03-02-2020 10:54:09
Part_0057      0.570018         13247      252      57.72  03-02-2020 10:54:10
Part_0058      0.580034         13495      248      44.86  03-02-2020 10:54:09
Part_0059      0.590004         13739      244      62.95  03-02-2020 10:54:10
Part_0060      0.600033         13985      246      67.90  03-02-2020 10:54:11
Part_0061      0.610028         14232      247      71.91  03-02-2020 10:54:11
Part_0062      0.620008         14481      249      32.49  03-02-2020 10:54:12
Part_0063      0.630011         14731      250      27.56  03-02-2020 10:54:12
Part_0064      0.640031         14979      248      27.42  03-02-2020 10:54:11
Part_0065      0.650017         15226      247      29.90  03-02-2020 10:54:12
Part_0066      0.660024         15473      247      26.41  03-02-2020 10:54:12
Part_0067      0.670040         15725      252      27.73  03-02-2020 10:54:11
Part_0068      0.680032         15972      247      26.74  03-02-2020 10:54:11
Part_0069      0.690010         16223      251      44.32  03-02-2020 10:54:12
Part_0070      0.700025         16475      252      76.11  03-02-2020 10:54:12
Part_0071      0.710034         16731      256      79.18  03-02-2020 10:54:12
Part_0072      0.720006         16986      255      64.98  03-02-2020 10:54:13
Part_0073      0.730007         17246      260      55.47  03-02-2020 10:54:14
Part_0074      0.740026         17508      262      28.29  03-02-2020 10:54:13
Part_0075      0.750015         17774      266      28.54  03-02-2020 10:54:13
Part_0076      0.760032         18041      267      28.88  03-02-2020 10:54:13
Part_0077      0.770022         18305      264      28.68  03-02-2020 10:54:13
Part_0078      0.780033         18580      275      31.94  03-02-2020 10:54:13
Part_0079      0.790005         18853      273      29.98  03-02-2020 10:54:13
Part_0080      0.800025         19126      273      30.23  03-02-2020 10:54:13
Part_0081      0.810014         19395      269      29.09  03-02-2020 10:54:13
Part_0082      0.820004         19665      270      28.92  03-02-2020 10:54:13
Part_0083      0.830017         19943      278      29.89  03-02-2020 10:54:13
Part_0084      0.840002         20211      268      30.06  03-02-2020 10:54:13
Part_0085      0.850015         20479      268      28.63  03-02-2020 10:54:13
Part_0086      0.860030         20744      265      28.12  03-02-2020 10:54:12
Part_0087      0.870010         21013      269      45.49  03-02-2020 10:54:13
Part_0088      0.880002         21278      265      39.62  03-02-2020 10:54:13
Part_0089      0.890023         21549      271      32.03  03-02-2020 10:54:13
Part_0090      0.900028         21820      271      57.25  03-02-2020 10:54:13
Part_0091      0.910026         22094      274      34.10  03-02-2020 10:54:13
Part_0092      0.920009         22363      269      29.63  03-02-2020 10:54:13
Part_0093      0.930030         22634      271      33.63  03-02-2020 10:54:13
Part_0094      0.940021         22901      267      47.79  03-02-2020 10:54:14
Part_0095      0.950010         23179      278      50.39  03-02-2020 10:54:13
Part_0096      0.960015         23461      282      41.61  03-02-2020 10:54:14
Part_0097      0.970001         23743      282      35.63  03-02-2020 10:54:14
Part_0098      0.980019         24016      273      29.91  03-02-2020 10:54:13
Part_0099      0.990016         24291      275      29.79  03-02-2020 10:54:13
Part_0100      1.000024         24570      279      46.47  03-02-2020 10:54:14

[Simulation finished  03-02-2020 10:54:14]
Particles of simulation (initial): 5100
DTs adjusted to DtMin............: 0
Excluded particles...............: 0
Total Runtime....................: 34.488060 sec.
Simulation Runtime...............: 34.482254 sec.
Time per second of simulation....: 34.481441 sec.
Steps per second.................: 712.540405
Steps of simulation..............: 24570
PART files.......................: 101
Maximum number of particles......: 5407
Maximum number of cells..........: 532
CPU Memory.......................: 971052 (0.93 MB)
 
[CPU Timers]
VA-Init..........................: 0.005811 sec.
NL-Limits........................: 1.438482 sec.
NL-MakeSort......................: 1.382175 sec.
NL-SortData......................: 1.238685 sec.
NL-OutCheck......................: 0.000676 sec.
CF-PreForces.....................: 2.705163 sec.
CF-Forces........................: 23.740192 sec.
SU-Shifting......................: 0.000000 sec.
SU-ComputeStep...................: 2.771032 sec.
SU-Floating......................: 0.000000 sec.
SU-Motion........................: 0.000000 sec.
SU-Periodic......................: 1.139396 sec.
SU-ResizeNp......................: 0.000130 sec.
SU-SavePart......................: 0.045536 sec.
SU-Chrono........................: 0.000000 sec.
SU-BoundCorr.....................: 0.000000 sec.
SU-InOut.........................: 0.000000 sec.
 
[Output files]
- CfgInit_Domain.vtk..: Saves the limits of the case and the simulation domain limits.
- CfgInit_MapCells.vtk: Saves the cell division of the simulation domain.
- PartInfo.ibi4.......: Binary file with execution information for each instant (input for PartInfo program).
- PartOut_???.obi4....: Binary file with particles excluded during simulation (input for PartVtkOut program).
- Part_????.bi4.......: Binary file with particle data in different instants.
- Part_Head.ibi4......: Binary file with basic information of simulation data.
- Run.csv.............: One line CSV file with execution parameters and other simulation data.
- Run.out.............: Log file of the simulation.
 
[WARNINGS]
1. The options IncZ and DomainFixedXXXX are deprecated.
 
