

 <DUALSPHYSICS4> Copyright (c) 2019 by
 Dr Jose M. Dominguez, Dr Alejandro Crespo,
 Prof. Moncho Gomez Gesteira,  Prof. Benedict Rogers,
 Dr Georgios Fourtakas, Prof. Peter Stansby, Dr Ricardo Canelas,
 Dr Renato Vacondio, Dr Corrado Altomare, Dr Angelo Tafuni,
 Orlando Garcia-Feal, Dr Jose Gonzalez Cao

 EPHYSLAB Environmental Physics Laboratory, Universidade de Vigo
 School of Mechanical, Aerospace and Civil Engineering, University of Manchester

 DualSPHysics is free software: you can redistribute it and/or
 modify it under the terms of the GNU Lesser General Public License
 as published by the Free Software Foundation, either version 2.1 of
 the License, or (at your option) any later version.

 DualSPHysics is distributed in the hope that it will be useful,
 but WITHOUT ANY WARRANTY; without even the implied warranty of
 MERCHANTABILITY or FITNESS FOR A PARTICULAR PURPOSE.  See the
 GNU Lesser General Public License for more details.

 You should have received a copy of the GNU Lesser General Public License
 along with DualSPHysics. If not, see <http://www.gnu.org/licenses/>.


DualSPHysics4 [Symmetry] v4.4.010 (21-06-2019)
===============================================
Threads by host for parallel execution: 8
[Initialising JSphCpuSingle  07-02-2020 14:43:10]
ProgramFile=".../DSPHOnlyVisco/build-source-Desktop-Default/DualSPHysics4.4CPU"
ExecutionDir=".../prashant/Qt/DSPHOnlyVisco"
XmlFile=".../DSPHOnlyVisco/Gen/gen.xml"
OutputDir=".../Qt/DSPHOnlyVisco/DSPH"
OutputDataDir=".../Qt/DSPHOnlyVisco/DSPH"

*** WARNING: The options IncZ and DomainFixedXXXX are deprecated.

**Basic case configuration is loaded
**Special case configuration is loaded
Loading initial state of particles...
Loaded particles: 5100
MapRealPos(border)=(-0.000707107,0.499293,-0.005)-(0.500707,0.500707,0.995)
MapRealPos(final)=(-0.000707107,0.499293,-0.005)-(0.500707,0.500707,0.995)
**Initial state of particles is loaded
**2D-Simulation parameters:
CaseName="gen"
RunName="gen"
Simulate2DPosY=0.5
Symmetry=False
PosDouble="0: Uses and stores in single precision"
SvTimers=True
StepAlgorithm="Verlet"
VerletSteps=40
Kernel="Wendland"
Viscosity="Artificial"
Visco=0.010000
ViscoBoundFactor=1.000000
DeltaSph="None"
Shifting="None"
RigidAlgorithm="None"
FloatingCount=0
CaseNp=5100
CaseNbound=2380
CaseNfixed=2380
CaseNmoving=0
CaseNfloat=0
CaseNfluid=2720
PeriodicActive="Axis-Z"
PeriodicZinc=(0,0,-1)
Dx=0.01
H=0.014142
CoefficientH=1
CteB=554965.687500
Gamma=7.000000
RhopZero=1000.000000
Cs0=62.3278
CFLnumber=0.200000
DtIni=0.000226899
DtMin=1.1345e-05
DtAllParticles=False
MassFluid=0.100000
MassBound=0.100000
Awen (Wendland)=2784.999756
Bwen (Wendland)=-984716.812500
TimeMax=1
TimePart=0.01
Gravity=(0.000000,0.000000,-9.810000)
NpMinimum=2380
RhopOut=True
RhopOutMin=700.000000
RhopOutMax=1300.000000
**Requested cpu memory for 5110 particles: 0.6 MB.
CellMode="2H"
Hdiv=1
MapCells=(18,1,38)
DomCells=(18,1,38)
DomCellCode="12_8_12"
**JSphCpu: Requesting cpu memory for 5617 particles: 0.7 MB.
**CellDiv: Requested cpu memory for 5686 particles: 0.2 MB.
**CellDiv: Requested cpu memory for 1170 cells (CellMode=2H): 0.0 MB.
 
RunMode="Pos-Single - OpenMP(Threads:8)"
 
Particle summary:
  Fixed....: 2380  id:(0-2379)   MKs:1 (11)
  Moving...: 0
  Floating.: 0
  Fluid....: 2720  id:(2380-5099)   MKs:3 (1-3)

Total particles: 5100 (bound=2380 (fx=2380 mv=0 ft=0) fluid=2720)
Total MK blocks: 4 (bound=1 (fx=1 mv=0 ft=0) fluid=3)
 
Allocated memory in CPU: 919692 (0.88 MB)
Part_0000        5100 particles successfully stored

[WARNINGS]
1. The options IncZ and DomainFixedXXXX are deprecated.

[Initialising simulation (e0w7lzj0)  07-02-2020 14:43:10]
PART       PartTime      TotalSteps    Steps    Time/Sec   Finish time        
=========  ============  ============  =======  =========  ===================
**JSphCpu: Requesting cpu memory for 5938 particles: 0.7 MB.
**CellDiv: Requested cpu memory for 6007 particles: 0.2 MB.
Part_0001      0.010009           221      221      25.15  07-02-2020 14:43:35
Part_0002      0.020006           442      221      23.84  07-02-2020 14:43:35
Part_0003      0.030024           664      222      24.02  07-02-2020 14:43:34
Part_0004      0.040025           886      222      24.16  07-02-2020 14:43:34
Part_0005      0.050003          1108      222      24.86  07-02-2020 14:43:35
Part_0006      0.060004          1331      223      24.54  07-02-2020 14:43:34
Part_0007      0.070033          1555      224      25.39  07-02-2020 14:43:34
Part_0008      0.080041          1779      224      25.63  07-02-2020 14:43:34
Part_0009      0.090017          2003      224      24.88  07-02-2020 14:43:35
Part_0010      0.100024          2228      225      25.38  07-02-2020 14:43:35
Part_0011      0.110001          2453      225      25.29  07-02-2020 14:43:35
Part_0012      0.120005          2679      226      26.59  07-02-2020 14:43:34
Part_0013      0.130041          2906      227      26.10  07-02-2020 14:43:35
Part_0014      0.140029          3132      226      25.55  07-02-2020 14:43:35
Part_0015      0.150016          3359      227      25.45  07-02-2020 14:43:35
Part_0016      0.160004          3586      227      25.81  07-02-2020 14:43:35
Part_0017      0.170032          3814      228      26.79  07-02-2020 14:43:35
Part_0018      0.180023          4042      228      36.80  07-02-2020 14:43:36
Part_0019      0.190026          4271      229      26.08  07-02-2020 14:43:35
Part_0020      0.200025          4499      228      25.72  07-02-2020 14:43:36
Part_0021      0.210042          4728      229      25.49  07-02-2020 14:43:36
Part_0022      0.220003          4956      228      27.52  07-02-2020 14:43:36
Part_0023      0.230015          5186      230      26.89  07-02-2020 14:43:36
Part_0024      0.240004          5415      229      30.20  07-02-2020 14:43:36
Part_0025      0.250028          5645      230      26.23  07-02-2020 14:43:36
Part_0026      0.260011          5874      229      26.41  07-02-2020 14:43:36
Part_0027      0.270013          6104      230      26.02  07-02-2020 14:43:37
Part_0028      0.280029          6335      231      25.92  07-02-2020 14:43:36
Part_0029      0.290040          6566      231      26.13  07-02-2020 14:43:36
Part_0030      0.300038          6796      230      26.21  07-02-2020 14:43:36
Part_0031      0.310007          7027      231      26.13  07-02-2020 14:43:37
Part_0032      0.320028          7260      233      26.51  07-02-2020 14:43:36
Part_0033      0.330002          7493      233      49.40  07-02-2020 14:43:37
Part_0034      0.340037          7726      233      26.58  07-02-2020 14:43:37
Part_0035      0.350029          7957      231      25.94  07-02-2020 14:43:37
Part_0036      0.360003          8191      234      27.36  07-02-2020 14:43:37
Part_0037      0.370007          8423      232      30.32  07-02-2020 14:43:36
Part_0038      0.380022          8657      234      26.86  07-02-2020 14:43:37
Part_0039      0.390041          8893      236      27.01  07-02-2020 14:43:37
Part_0040      0.400019          9131      238      27.28  07-02-2020 14:43:37
Part_0041      0.410012          9367      236      26.83  07-02-2020 14:43:37
Part_0042      0.420018          9604      237      26.59  07-02-2020 14:43:37
Part_0043      0.430001          9843      239      27.91  07-02-2020 14:43:37
Part_0044      0.440021         10078      235      33.76  07-02-2020 14:43:37
Part_0045      0.450039         10318      240      27.78  07-02-2020 14:43:37
Part_0046      0.460015         10556      238      27.17  07-02-2020 14:43:37
Part_0047      0.470024         10797      241      31.05  07-02-2020 14:43:37
Part_0048      0.480032         11044      247      29.14  07-02-2020 14:43:38
Part_0049      0.490028         11285      241      27.61  07-02-2020 14:43:37
Part_0050      0.500005         11528      243      28.07  07-02-2020 14:43:37
Part_0051      0.510003         11771      243      27.91  07-02-2020 14:43:37
Part_0052      0.520024         12011      240      27.56  07-02-2020 14:43:38
Part_0053      0.530016         12257      246      27.98  07-02-2020 14:43:37
Part_0054      0.540020         12501      244      28.34  07-02-2020 14:43:37
Part_0055      0.550004         12749      248      29.69  07-02-2020 14:43:38
Part_0056      0.560009         12995      246      28.18  07-02-2020 14:43:38
Part_0057      0.570018         13247      252      28.98  07-02-2020 14:43:37
Part_0058      0.580034         13495      248      28.21  07-02-2020 14:43:37
Part_0059      0.590004         13739      244      27.89  07-02-2020 14:43:38
Part_0060      0.600033         13985      246      27.96  07-02-2020 14:43:37
Part_0061      0.610028         14232      247      28.92  07-02-2020 14:43:37
Part_0062      0.620008         14481      249      32.89  07-02-2020 14:43:38
Part_0063      0.630011         14731      250      28.34  07-02-2020 14:43:38
Part_0064      0.640031         14979      248      28.49  07-02-2020 14:43:37
Part_0065      0.650017         15226      247      29.60  07-02-2020 14:43:37
Part_0066      0.660024         15473      247      28.26  07-02-2020 14:43:38
Part_0067      0.670040         15725      252      33.56  07-02-2020 14:43:38
Part_0068      0.680032         15972      247      35.71  07-02-2020 14:43:37
Part_0069      0.690010         16223      251      29.77  07-02-2020 14:43:38
Part_0070      0.700025         16475      252      29.00  07-02-2020 14:43:38
Part_0071      0.710034         16731      256      29.16  07-02-2020 14:43:38
Part_0072      0.720006         16986      255      29.17  07-02-2020 14:43:38
Part_0073      0.730007         17246      260      29.57  07-02-2020 14:43:38
Part_0074      0.740026         17508      262      29.66  07-02-2020 14:43:38
Part_0075      0.750015         17774      266      34.79  07-02-2020 14:43:38
Part_0076      0.760032         18041      267      30.89  07-02-2020 14:43:38
Part_0077      0.770022         18305      264      29.96  07-02-2020 14:43:38
Part_0078      0.780033         18580      275      30.95  07-02-2020 14:43:38
Part_0079      0.790005         18853      273      31.06  07-02-2020 14:43:38
Part_0080      0.800025         19126      273      31.26  07-02-2020 14:43:38
Part_0081      0.810014         19395      269      30.51  07-02-2020 14:43:38
Part_0082      0.820004         19665      270      33.98  07-02-2020 14:43:39
Part_0083      0.830017         19943      278      33.24  07-02-2020 14:43:38
Part_0084      0.840002         20211      268      32.73  07-02-2020 14:43:38
Part_0085      0.850015         20479      268      30.67  07-02-2020 14:43:39
Part_0086      0.860030         20744      265      29.84  07-02-2020 14:43:38
Part_0087      0.870010         21013      269      30.35  07-02-2020 14:43:38
Part_0088      0.880002         21278      265      31.42  07-02-2020 14:43:39
Part_0089      0.890023         21549      271      32.20  07-02-2020 14:43:39
Part_0090      0.900028         21820      271      32.34  07-02-2020 14:43:38
Part_0091      0.910026         22094      274      32.77  07-02-2020 14:43:39
Part_0092      0.920009         22363      269      59.68  07-02-2020 14:43:39
Part_0093      0.930030         22634      271      76.74  07-02-2020 14:43:40
Part_0094      0.940021         22901      267      46.29  07-02-2020 14:43:39
Part_0095      0.950010         23179      278      50.32  07-02-2020 14:43:40
Part_0096      0.960015         23461      282      50.28  07-02-2020 14:43:40
Part_0097      0.970001         23743      282      42.89  07-02-2020 14:43:40
Part_0098      0.980019         24016      273      35.49  07-02-2020 14:43:40
Part_0099      0.990016         24291      275      33.29  07-02-2020 14:43:40
Part_0100      1.000024         24570      279      49.37  07-02-2020 14:43:41

[Simulation finished  07-02-2020 14:43:41]
Particles of simulation (initial): 5100
DTs adjusted to DtMin............: 0
Excluded particles...............: 0
Total Runtime....................: 30.537651 sec.
Simulation Runtime...............: 30.534201 sec.
Time per second of simulation....: 30.533480 sec.
Steps per second.................: 804.671448
Steps of simulation..............: 24570
PART files.......................: 101
Maximum number of particles......: 5407
Maximum number of cells..........: 532
CPU Memory.......................: 971052 (0.93 MB)
 
[CPU Timers]
VA-Init..........................: 0.003435 sec.
NL-Limits........................: 1.437557 sec.
NL-MakeSort......................: 1.376615 sec.
NL-SortData......................: 1.224539 sec.
NL-OutCheck......................: 0.000729 sec.
CF-PreForces.....................: 2.642796 sec.
CF-Forces........................: 19.925840 sec.
SU-Shifting......................: 0.000000 sec.
SU-ComputeStep...................: 2.739815 sec.
SU-Floating......................: 0.000000 sec.
SU-Motion........................: 0.000000 sec.
SU-Periodic......................: 1.119178 sec.
SU-ResizeNp......................: 0.000127 sec.
SU-SavePart......................: 0.047695 sec.
SU-Chrono........................: 0.000000 sec.
SU-BoundCorr.....................: 0.000000 sec.
SU-InOut.........................: 0.000000 sec.
 
[Output files]
- CfgInit_Domain.vtk..: Saves the limits of the case and the simulation domain limits.
- CfgInit_MapCells.vtk: Saves the cell division of the simulation domain.
- PartInfo.ibi4.......: Binary file with execution information for each instant (input for PartInfo program).
- PartOut_???.obi4....: Binary file with particles excluded during simulation (input for PartVtkOut program).
- Part_????.bi4.......: Binary file with particle data in different instants.
- Part_Head.ibi4......: Binary file with basic information of simulation data.
- Run.csv.............: One line CSV file with execution parameters and other simulation data.
- Run.out.............: Log file of the simulation.
 
[WARNINGS]
1. The options IncZ and DomainFixedXXXX are deprecated.
 
