

 <GENCASE4>  Copyright (C) 2018 by Dr Jose M. Dominguez
 All rights reserved.

 DualSPHysics is an international collaboration between University of Vigo 
 (Spain) and University of Manchester (UK). 

 Redistribution and use in source and binary forms, with or without
 modification, are permitted provided that the following conditions
 are met:
 * Redistributions of source code must retain the above copyright
   notice, this list of conditions and the following disclaimer.
 * Redistributions in binary form must reproduce the above copyright
   notice, this list of conditions and the following disclaimer in the
   documentation and/or other materials provided with the distribution.
 * Neither the name of the DualSPHysics nor the names of its contributors
   may be used to endorse or promote products derived from this software
   without specific prior written permission.

 THIS SOFTWARE IS PROVIDED BY THE COPYRIGHT HOLDERS AND CONTRIBUTORS "AS IS"
 AND ANY EXPRESS OR IMPLIED WARRANTIES, INCLUDING, BUT NOT LIMITED TO, THE
 IMPLIED WARRANTIES OF MERCHANTABILITY AND FITNESS FOR A PARTICULAR PURPOSE
 ARE DISCLAIMED. IN NO EVENT SHALL THE COPYRIGHT OWNER BE LIABLE FOR ANY
 DIRECT, INDIRECT, INCIDENTAL, SPECIAL, EXEMPLARY, OR CONSEQUENTIAL DAMAGES
 (INCLUDING, BUT NOT LIMITED TO, PROCUREMENT OF SUBSTITUTE GOODS OR SERVICES;
 LOSS OF USE, DATA, OR PROFITS; OR BUSINESS INTERRUPTION) HOWEVER CAUSED AND
 ON ANY THEORY OF LIABILITY, WHETHER IN CONTRACT, STRICT LIABILITY, OR TORT
 (INCLUDING NEGLIGENCE OR OTHERWISE) ARISING IN ANY WAY OUT OF THE USE OF
 THIS SOFTWARE, EVEN IF ADVISED OF THE POSSIBILITY OF SUCH DAMAGE. 


GenCase4 v4.0.079 (16-10-2018) 
================================
OmpThreads: 8

[LoadXML]
List: MAIN

Total operations: 21
[LoadXML-End  time:0.001s]

[Draw]
Mk size: 1 bytes
Case limits: (0,0.5,0) - (1,0.5,1)
Distance between points: 0.01
Case domain: (0,0,0)-(99,0,99)
Domain points: 100 x 1 x 100 = 10000
Case parts: 1 x 100z
Memory: 0.00Gb 0.01Mb (10000)

> MAIN
FileShapes> _Dp.vtk  shapes:6  points:8   (time:0.000s)
<MAIN (Operations= 17+4+1 = 22)

Triangles: 48 (0 ignored)
[Draw-End  time:0.004s]

[PreparePoints]
Computing Vtk-Cells data...  (time:0.000s)
BitSizeTot: 16 (2 + 6+1+7)
Points loaded: 5100
Sorting points by Z...
Sorting points by Mk...

List of Points:
Points -> Fixed-Boundary particles:
  block[  0] (mk: 11):   2380  -->    2380
Points -> Fluid particles:
  block[  1] (mk:  1):   2489  -->    2489
  block[  2] (mk:  2):    110  -->     110
  block[  3] (mk:  3):    121  -->     121

Particle summary:
  Fixed....: 2380  id:(0-2379)   MKs:1 (11)
  Moving...: 0
  Floating.: 0
  Fluid....: 2720  id:(2380-5099)   MKs:3 (1-3)

Total particles: 5100 (bound=2380 (fx=2380 mv=0 ft=0) fluid=2720)
Total MK blocks: 4 (bound=1 (fx=1 mv=0 ft=0) fluid=3)

Maximum depth: 0.99 (automatic)
Speed of system: 3.11639 (automatic)
Speed of sound: max(coefsound*speedsystem,10*sqrt(g*depth))
Speed of sound: 62.3278 max(62.3278,31.1639)

Coefh:1.000000 (hdp:1.414214)

[PreparePoints-End  time:0.001s]

[SaveCase2D]
Gen/gen_MkCells.vtk  (time:0.000s, shapes:13, points:52)
gen.bi4<double>  (time:0.000s)
Gen/gen.xml  (time:0.000s)

Save files time: 0.001s
[SaveCase2D-End  time:0.002s]

