

 <DUALSPHYSICS4> Copyright (c) 2019 by
 Dr Jose M. Dominguez, Dr Alejandro Crespo,
 Prof. Moncho Gomez Gesteira,  Prof. Benedict Rogers,
 Dr Georgios Fourtakas, Prof. Peter Stansby, Dr Ricardo Canelas,
 Dr Renato Vacondio, Dr Corrado Altomare, Dr Angelo Tafuni,
 Orlando Garcia-Feal, Dr Jose Gonzalez Cao

 EPHYSLAB Environmental Physics Laboratory, Universidade de Vigo
 School of Mechanical, Aerospace and Civil Engineering, University of Manchester

 DualSPHysics is free software: you can redistribute it and/or
 modify it under the terms of the GNU Lesser General Public License
 as published by the Free Software Foundation, either version 2.1 of
 the License, or (at your option) any later version.

 DualSPHysics is distributed in the hope that it will be useful,
 but WITHOUT ANY WARRANTY; without even the implied warranty of
 MERCHANTABILITY or FITNESS FOR A PARTICULAR PURPOSE.  See the
 GNU Lesser General Public License for more details.

 You should have received a copy of the GNU Lesser General Public License
 along with DualSPHysics. If not, see <http://www.gnu.org/licenses/>.


DualSPHysics4 [Symmetry] v4.4.010 (21-06-2019)
===============================================
Threads by host for parallel execution: 8
[Initialising JSphCpuSingle  31-01-2020 11:55:20]
ProgramFile=".../DSPHOnlyVisco/build-source-Desktop-Default/DualSPHysics4.4CPU"
ExecutionDir=".../Qt/DSPHOnlyVisco/build-source-Desktop-Default"
XmlFile=".../build-source-Desktop-Default/Gen/gen.xml"
OutputDir=".../DSPHOnlyVisco/build-source-Desktop-Default/DSPHViscMax"
OutputDataDir=".../DSPHOnlyVisco/build-source-Desktop-Default/DSPHViscMax"

*** WARNING: The options IncZ and DomainFixedXXXX are deprecated.

**Basic case configuration is loaded
**Special case configuration is loaded
Loading initial state of particles...
Loaded particles: 5100
MapRealPos(border)=(-0.000707107,0.499293,-0.005)-(0.500707,0.500707,0.995)
MapRealPos(final)=(-0.000707107,0.499293,-0.005)-(0.500707,0.500707,0.995)
**Initial state of particles is loaded
**2D-Simulation parameters:
CaseName="gen"
RunName="gen"
Simulate2DPosY=0.5
Symmetry=False
PosDouble="0: Uses and stores in single precision"
SvTimers=True
StepAlgorithm="Verlet"
VerletSteps=40
Kernel="Wendland"
Viscosity="Artificial"
Visco=0.010000
ViscoBoundFactor=1.000000
DeltaSph="None"
Shifting="None"
RigidAlgorithm="None"
FloatingCount=0
CaseNp=5100
CaseNbound=2380
CaseNfixed=2380
CaseNmoving=0
CaseNfloat=0
CaseNfluid=2720
PeriodicActive="Axis-Z"
PeriodicZinc=(0,0,-1)
Dx=0.01
H=0.014142
CoefficientH=1
CteB=554965.687500
Gamma=7.000000
RhopZero=1000.000000
Cs0=62.3278
CFLnumber=0.200000
DtIni=0.000226899
DtMin=1.1345e-05
DtAllParticles=False
MassFluid=0.100000
MassBound=0.100000
Awen (Wendland)=2784.999756
Bwen (Wendland)=-984716.812500
TimeMax=1
TimePart=0.01
Gravity=(0.000000,0.000000,-9.810000)
NpMinimum=2380
RhopOut=True
RhopOutMin=700.000000
RhopOutMax=1300.000000
**Requested cpu memory for 5110 particles: 0.6 MB.
CellMode="2H"
Hdiv=1
MapCells=(18,1,38)
DomCells=(18,1,38)
DomCellCode="12_8_12"
**JSphCpu: Requesting cpu memory for 5617 particles: 0.7 MB.
**CellDiv: Requested cpu memory for 5686 particles: 0.2 MB.
**CellDiv: Requested cpu memory for 1170 cells (CellMode=2H): 0.0 MB.
 
RunMode="Pos-Single - OpenMP(Threads:8)"
 
Particle summary:
  Fixed....: 2380  id:(0-2379)   MKs:1 (11)
  Moving...: 0
  Floating.: 0
  Fluid....: 2720  id:(2380-5099)   MKs:3 (1-3)

Total particles: 5100 (bound=2380 (fx=2380 mv=0 ft=0) fluid=2720)
Total MK blocks: 4 (bound=1 (fx=1 mv=0 ft=0) fluid=3)
 
Allocated memory in CPU: 919692 (0.88 MB)
Part_0000        5100 particles successfully stored

[WARNINGS]
1. The options IncZ and DomainFixedXXXX are deprecated.

[Initialising simulation (g49ssj4u)  31-01-2020 11:55:20]
PART       PartTime      TotalSteps    Steps    Time/Sec   Finish time        
=========  ============  ============  =======  =========  ===================
**JSphCpu: Requesting cpu memory for 5938 particles: 0.7 MB.
**CellDiv: Requested cpu memory for 6007 particles: 0.2 MB.
Part_0001      0.010009           221      221      24.48  31-01-2020 11:55:44
Part_0002      0.020006           442      221      25.33  31-01-2020 11:55:44
Part_0003      0.030024           664      222      26.12  31-01-2020 11:55:44
Part_0004      0.040025           886      222      26.25  31-01-2020 11:55:45
Part_0005      0.050003          1108      222      26.80  31-01-2020 11:55:45
Part_0006      0.060004          1331      223      26.37  31-01-2020 11:55:45
Part_0007      0.070033          1555      224      30.33  31-01-2020 11:55:46
Part_0008      0.080041          1779      224      27.09  31-01-2020 11:55:46
Part_0009      0.090017          2003      224      27.20  31-01-2020 11:55:46
Part_0010      0.100024          2228      225      27.47  31-01-2020 11:55:46
Part_0011      0.110001          2453      225      27.62  31-01-2020 11:55:46
Part_0012      0.120005          2679      226      27.52  31-01-2020 11:55:46
Part_0013      0.130041          2906      227      26.95  31-01-2020 11:55:46
Part_0014      0.140029          3132      226      27.42  31-01-2020 11:55:46
Part_0015      0.150016          3359      227      26.63  31-01-2020 11:55:46
Part_0016      0.160005          3586      227      27.82  31-01-2020 11:55:46
Part_0017      0.170031          3814      228      26.91  31-01-2020 11:55:46
Part_0018      0.180019          4042      228      31.98  31-01-2020 11:55:47
Part_0019      0.190022          4271      229      27.76  31-01-2020 11:55:47
Part_0020      0.200011          4499      228      27.56  31-01-2020 11:55:46
Part_0021      0.210025          4728      229      27.21  31-01-2020 11:55:46
Part_0022      0.220033          4957      229      34.85  31-01-2020 11:55:47
Part_0023      0.230040          5187      230      51.75  31-01-2020 11:55:48
Part_0024      0.240034          5417      230      30.58  31-01-2020 11:55:48
Part_0025      0.250042          5647      230      28.62  31-01-2020 11:55:48
Part_0026      0.260006          5876      229      26.53  31-01-2020 11:55:48
Part_0027      0.270002          6106      230      27.45  31-01-2020 11:55:47
Part_0028      0.280043          6336      230      30.31  31-01-2020 11:55:48
Part_0029      0.290024          6566      230      28.46  31-01-2020 11:55:48
Part_0030      0.300029          6796      230      28.15  31-01-2020 11:55:48
Part_0031      0.310033          7027      231      27.28  31-01-2020 11:55:48
Part_0032      0.320017          7257      230      28.48  31-01-2020 11:55:48
Part_0033      0.330002          7487      230      28.19  31-01-2020 11:55:48
Part_0034      0.340032          7718      231      28.33  31-01-2020 11:55:47
Part_0035      0.350025          7949      231      27.50  31-01-2020 11:55:48
Part_0036      0.360037          8181      232      28.58  31-01-2020 11:55:48
Part_0037      0.370016          8412      231      27.61  31-01-2020 11:55:47
Part_0038      0.380022          8644      232      31.60  31-01-2020 11:55:48
Part_0039      0.390012          8876      232      28.67  31-01-2020 11:55:48
Part_0040      0.400022          9110      234      27.93  31-01-2020 11:55:48
Part_0041      0.410032          9342      232      29.07  31-01-2020 11:55:47
Part_0042      0.420040          9575      233      31.35  31-01-2020 11:55:48
Part_0043      0.430023          9809      234      29.12  31-01-2020 11:55:48
Part_0044      0.440012         10050      241      29.18  31-01-2020 11:55:48
Part_0045      0.450012         10292      242      29.55  31-01-2020 11:55:48
Part_0046      0.460011         10535      243      28.97  31-01-2020 11:55:48
Part_0047      0.470035         10786      251      31.02  31-01-2020 11:55:48
Part_0048      0.480032         11027      241      31.08  31-01-2020 11:55:48
Part_0049      0.490020         11274      247      31.57  31-01-2020 11:55:48
Part_0050      0.500005         11518      244      29.09  31-01-2020 11:55:48
Part_0051      0.510006         11758      240      31.01  31-01-2020 11:55:48
Part_0052      0.520010         12002      244      29.05  31-01-2020 11:55:48
Part_0053      0.530012         12251      249      30.65  31-01-2020 11:55:48
Part_0054      0.540034         12508      257      30.52  31-01-2020 11:55:48
Part_0055      0.550027         12763      255      31.77  31-01-2020 11:55:49
Part_0056      0.560005         13006      243      29.12  31-01-2020 11:55:48
Part_0057      0.570021         13258      252      30.82  31-01-2020 11:55:48
Part_0058      0.580011         13506      248      31.39  31-01-2020 11:55:49
Part_0059      0.590035         13754      248      30.67  31-01-2020 11:55:48
Part_0060      0.600021         13999      245      29.45  31-01-2020 11:55:48
Part_0061      0.610021         14251      252      30.32  31-01-2020 11:55:48
Part_0062      0.620039         14497      246      29.43  31-01-2020 11:55:49
Part_0063      0.630032         14742      245      29.28  31-01-2020 11:55:48
Part_0064      0.640000         14989      247      29.76  31-01-2020 11:55:48
Part_0065      0.650011         15241      252      29.81  31-01-2020 11:55:49
Part_0066      0.660029         15494      253      30.27  31-01-2020 11:55:48
Part_0067      0.670033         15746      252      30.23  31-01-2020 11:55:48
Part_0068      0.680005         15999      253      33.31  31-01-2020 11:55:49
Part_0069      0.690036         16253      254      31.81  31-01-2020 11:55:49
Part_0070      0.700002         16507      254      31.43  31-01-2020 11:55:48
Part_0071      0.710032         16763      256      29.96  31-01-2020 11:55:49
Part_0072      0.720007         17018      255      31.33  31-01-2020 11:55:49
Part_0073      0.730011         17276      258      30.52  31-01-2020 11:55:48
Part_0074      0.740016         17539      263      32.18  31-01-2020 11:55:48
Part_0075      0.750003         17798      259      30.77  31-01-2020 11:55:49
Part_0076      0.760018         18058      260      32.35  31-01-2020 11:55:49
Part_0077      0.770021         18315      257      30.26  31-01-2020 11:55:48
Part_0078      0.780038         18574      259      34.96  31-01-2020 11:55:49
Part_0079      0.790032         18829      255      30.74  31-01-2020 11:55:49
Part_0080      0.800021         19084      255      31.63  31-01-2020 11:55:48
Part_0081      0.810024         19342      258      30.40  31-01-2020 11:55:49
Part_0082      0.820027         19599      257      31.31  31-01-2020 11:55:49
Part_0083      0.830017         19868      269      31.61  31-01-2020 11:55:49
Part_0084      0.840012         20135      267      32.75  31-01-2020 11:55:49
Part_0085      0.850014         20403      268      31.87  31-01-2020 11:55:49
Part_0086      0.860007         20675      272      33.45  31-01-2020 11:55:49
Part_0087      0.870025         20944      269      34.93  31-01-2020 11:55:49
Part_0088      0.880007         21215      271      34.50  31-01-2020 11:55:49
Part_0089      0.890024         21482      267      32.55  31-01-2020 11:55:49
Part_0090      0.900036         21753      271      31.84  31-01-2020 11:55:49
Part_0091      0.910028         22026      273      33.51  31-01-2020 11:55:49
Part_0092      0.920035         22301      275      32.64  31-01-2020 11:55:49
Part_0093      0.930002         22576      275      34.36  31-01-2020 11:55:50
Part_0094      0.940001         22852      276      32.32  31-01-2020 11:55:49
Part_0095      0.950013         23134      282      34.76  31-01-2020 11:55:49
Part_0096      0.960025         23419      285      35.80  31-01-2020 11:55:50
Part_0097      0.970023         23703      284      34.24  31-01-2020 11:55:49
Part_0098      0.980002         23982      279      34.15  31-01-2020 11:55:49
Part_0099      0.990030         24257      275      32.34  31-01-2020 11:55:50
Part_0100      1.000018         24536      279      33.76  31-01-2020 11:55:50

[Simulation finished  31-01-2020 11:55:50]
Particles of simulation (initial): 5100
DTs adjusted to DtMin............: 0
Excluded particles...............: 0
Total Runtime....................: 30.329897 sec.
Simulation Runtime...............: 30.325470 sec.
Time per second of simulation....: 30.324932 sec.
Steps per second.................: 809.088867
Steps of simulation..............: 24536
PART files.......................: 101
Maximum number of particles......: 5407
Maximum number of cells..........: 532
CPU Memory.......................: 971052 (0.93 MB)
 
[CPU Timers]
VA-Init..........................: 0.004421 sec.
NL-Limits........................: 1.421008 sec.
NL-MakeSort......................: 1.380129 sec.
NL-SortData......................: 1.230632 sec.
NL-OutCheck......................: 0.000668 sec.
CF-PreForces.....................: 2.689242 sec.
CF-Forces........................: 19.694717 sec.
SU-Shifting......................: 0.000000 sec.
SU-ComputeStep...................: 2.726717 sec.
SU-Floating......................: 0.000000 sec.
SU-Motion........................: 0.000000 sec.
SU-Periodic......................: 1.116101 sec.
SU-ResizeNp......................: 0.000111 sec.
SU-SavePart......................: 0.048315 sec.
SU-Chrono........................: 0.000000 sec.
SU-BoundCorr.....................: 0.000000 sec.
SU-InOut.........................: 0.000000 sec.
 
[Output files]
- CfgInit_Domain.vtk..: Saves the limits of the case and the simulation domain limits.
- CfgInit_MapCells.vtk: Saves the cell division of the simulation domain.
- PartInfo.ibi4.......: Binary file with execution information for each instant (input for PartInfo program).
- PartOut_???.obi4....: Binary file with particles excluded during simulation (input for PartVtkOut program).
- Part_????.bi4.......: Binary file with particle data in different instants.
- Part_Head.ibi4......: Binary file with basic information of simulation data.
- Run.csv.............: One line CSV file with execution parameters and other simulation data.
- Run.out.............: Log file of the simulation.
 
[WARNINGS]
1. The options IncZ and DomainFixedXXXX are deprecated.
 
